pglib_opf_case60_c/pglib_opf_case60_c_2regions.m
% -------------------------------------------------------------------------
% Partitioned MATPOWER Case File
% Copyright (c) 2025 Milad Hasanzadeh
% Generated on: 2026-06-09
% This file contains partitioned data for 2 regions


% -------------------- mpc_regionR1 --------------------

mpc_regionR1.version = '2';
mpc_regionR1.baseMVA = 100.0000;
mpc_regionR1.bus = [
%	bus_i       type        Pd          Qd          Gs          Bs          area        Vm          Va          baseKV      zone        Vmax        Vmin        
	 1	 1	 200	 80	 0	-340.12	 1	 1	 0	 130	 1	 1.1	 0.9;
	 2	 1	 300	 100	 0	 0	 1	 1	 0	 130	 1	 1.1	 0.9;
	 3	 1	 100	 40	 0	 0	 1	 1	 0	 130	 1	 1.1	 0.9;
	 4	 1	 280	 95	 0	 150	 1	 1	 0	 130	 1	 1.1	 0.9;
	 5	 1	 100	 30	 0	 0	 1	 1	 0	 220	 1	 1.1	 0.9;
	 6	 1	 200	 50	 0	 0	 1	 1	 0	 220	 1	 1.1	 0.9;
	 7	 1	 300	 100	 0	-400	 1	 1	 0	 400	 1	 1.1	 0.9;
	 8	 1	 2000	 500	 0	 0	 1	 1	 0	 400	 1	 1.1	 0.9;
	 9	 1	 0	 0	 0	-100	 1	 1	 0	 400	 1	 1.1	 0.9;
	 10	 1	 0	 0	 0	 0	 1	 1	 0	 130	 1	 1.1	 0.9;
	 11	 1	 0	 0	 0	 0	 1	 1	 0	 130	 1	 1.1	 0.9;
	 12	 1	 0	 0	 0	 0	 1	 1	 0	 400	 1	 1.1	 0.9;
	 13	 1	 0	 0	 0	 0	 1	 1	 0	 400	 1	 1.1	 0.9;
	 14	 1	 0	 0	 0	 0	 1	 1	 0	 400	 1	 1.1	 0.9;
	 15	 1	 0	 0	 0	 0	 1	 1	 0	 400	 1	 1.1	 0.9;
	 16	 2	 0	 0	 0	 0	 1	 1	 0	 15	 1	 1.1	 0.9;
	 17	 2	 0	 0	 0	 0	 1	 1	 0	 15	 1	 1.1	 0.9;
	 18	 2	 0	 0	 0	 0	 1	 1	 0	 15	 1	 1.1	 0.9;
	 19	 2	 0	 0	 0	 0	 1	 1	 0	 15	 1	 1.1	 0.9;
	 20	 2	 0	 0	 0	 0	 1	 1	 0	 15	 1	 1.1	 0.9;
	 21	 2	 0	 0	 0	 0	 1	 1	 0	 15	 1	 1.1	 0.9;
	 22	 2	 0	 0	 0	 0	 1	 1	 0	 15	 1	 1.1	 0.9;
	 23	 2	 0	 0	 0	 0	 1	 1	 0	 15	 1	 1.1	 0.9;
	 24	 2	 0	 0	 0	 0	 1	 1	 0	 15	 1	 1.1	 0.9;
	 25	 2	 0	 0	 0	 0	 1	 1	 0	 15	 1	 1.1	 0.9;
	 26	 2	 0	 0	 0	 0	 1	 1	 0	 15	 1	 1.1	 0.9;
	 27	 2	 0	 0	 0	 0	 1	 1	 0	 15	 1	 1.1	 0.9;
];

mpc_regionR1.gen = [
%	bus         Pg          Qg          Qmax        Qmin        Vg          mBase       status      Pmax        Pmin        Pc1         Pc2         Qc1min      Qc1max      Qc2min      Qc2max      ramp_agc    ramp_10     ramp_30     ramp_q      apf         
	 16	 365	 0	 720	-720	 1	 800	 1	 720	 10;
	 17	 275	 0	 540	-540	 1	 600	 1	 540	 10;
	 18	 320	 0	 630	-630	 1	 700	 1	 630	 10;
	 19	 275	 0	 540	-540	 1	 600	 1	 540	 10;
	 20	 242.5	 50	 325	-225	 1	 400	 1	 475	 10;
	 21	 487.5	 100	 965	-765	 1	 1000	 1	 965	 10;
	 22	 455	 0	 900	-900	 1	 1000	 1	 900	 10;
	 23	 365	 0	 720	-720	 1	 800	 1	 720	 10;
	 24	 290	 100	 570	-370	 1	 600	 1	 570	 10;
	 25	 292.5	 50	 515	-415	 1	 600	 1	 575	 10;
	 26	 285	 35	 520	-450	 1	 600	 1	 560	 10;
	 27	 2255	 975	 4000	-2050	 1	 5000	 1	 4500	 10;
];

mpc_regionR1.branch = [
%	fbus        tbus        r           x           b           rateA       rateB       rateC       ratio       angle       status      angmin      angmax      
	 1	 3	 0.01	 0.07	 0.013804	 175	 175	 175	 0	 0	 1	-30	 30;
	 1	 3	 0.01	 0.07	 0.013804	 175	 175	 175	 0	 0	 1	-30	 30;
	 2	 10	 0.014024	 0.09	 0.018052	 175	 175	 175	 0	 0	 1	-30	 30;
	 2	 10	 0.014024	 0.09	 0.018052	 175	 175	 175	 0	 0	 1	-30	 30;
	 3	 10	 0.006982	 0.05	 0.010088	 175	 175	 175	 0	 0	 1	-30	 30;
	 3	 10	 0.006982	 0.05	 0.010088	 175	 175	 175	 0	 0	 1	-30	 30;
	 11	 4	 0.03	 0.2	 0.030263	 175	 175	 175	 0	 0	 1	-30	 30;
	 11	 4	 0.03	 0.2	 0.030263	 175	 175	 175	 0	 0	 1	-30	 30;
	 5	 6	 0.012004	 0.09	 0.015205	 250	 250	 250	 0	 0	 1	-30	 30;
	 5	 6	 0.012004	 0.09	 0.015205	 250	 250	 250	 0	 0	 1	-30	 30;
	 12	 9	 0.001	 0.008	 0.201062	 700	 700	 700	 0	 0	 1	-30	 30;
	 12	 13	 0.006	 0.06	 1.799488	 700	 700	 700	 0	 0	 1	-30	 30;
	 12	 14	 0.004	 0.04	 1.201344	 700	 700	 700	 0	 0	 1	-30	 30;
	 12	 7	 0.005	 0.045	 1.4024	 700	 700	 700	 0	 0	 1	-30	 30;
	 9	 14	 0.004	 0.035	 1.05056	 700	 700	 700	 0	 0	 1	-30	 30;
	 9	 7	 0.005	 0.05	 1.49792	 700	 700	 700	 0	 0	 1	-30	 30;
	 14	 15	 0.004	 0.04	 1.201344	 700	 700	 700	 0	 0	 1	-30	 30;
	 14	 15	 0.004	 0.04	 1.201344	 700	 700	 700	 0	 0	 1	-30	 30;
	 7	 8	 0.003	 0.03	 3.000864	 700	 700	 700	 0	 0	 1	-30	 30;
	 7	 8	 0.003	 0.03	 3.000864	 700	 700	 700	 0	 0	 1	-30	 30;
	 2	 16	 0	 0.01875	 0	 800	 800	 800	 1	 0	 1	-30	 30;
	 3	 17	 0	 0.025	 0	 600	 600	 600	 1	 0	 1	-30	 30;
	 10	 18	 0	 0.021429	 0	 700	 700	 700	 1	 0	 1	-30	 30;
	 11	 19	 0	 0.025	 0	 600	 600	 600	 1	 0	 1	-30	 30;
	 4	 20	 0	 0.06	 0	 1250	 1250	 1250	 1	 0	 1	-30	 30;
	 6	 21	 0	 0.017647	 0	 850	 850	 850	 1	 0	 1	-30	 30;
	 12	 22	 0	 0.015	 0	 1000	 1000	 1000	 1	 0	 1	-30	 30;
	 9	 23	 0	 0.01875	 0	 800	 800	 800	 1	 0	 1	-30	 30;
	 13	 24	 0	 0.05	 0	 300	 300	 300	 1	 0	 1	-30	 30;
	 15	 25	 0	 0.042857	 0	 1350	 1350	 1350	 1	 0	 1	-30	 30;
	 7	 26	 0	 0.03	 0	 500	 500	 500	 1	 0	 1	-30	 30;
	 8	 27	 0	 0.003333	 0	 4500	 4500	 4500	 1	 0	 1	-30	 30;
	 12	 1	 0	 0.008	 0	 1250	 1250	 1250	 0.89286	 0	 1	-30	 30;
	 9	 2	 0	 0.008	 0	 1250	 1250	 1250	 0.89286	 0	 1	-30	 30;
	 14	 4	 0	 0.012	 0	 833.3	 833.3	 833.3	 0.93458	 0	 1	-30	 30;
	 15	 5	 0	 0.012	 0	 833.3	 833.3	 833.3	 0.95238	 0	 1	-30	 30;
];

mpc_regionR1.gencost = [
%	2           startup     shutdown    n           c(n-1)...c0 
	 2	 0	 0	 3	 0	 10	 0;
	 2	 0	 0	 3	 0	 20	 0;
	 2	 0	 0	 3	 0	 10	 0;
	 2	 0	 0	 3	 0	 30	 0;
	 2	 0	 0	 3	 0	 10	 0;
	 2	 0	 0	 3	 0	 30	 0;
	 2	 0	 0	 3	 0	 10	 0;
	 2	 0	 0	 3	 0	 10	 0;
	 2	 0	 0	 3	 0	 20	 0;
	 2	 0	 0	 3	 0	 10	 0;
	 2	 0	 0	 3	 0	 30	 0;
	 2	 0	 0	 3	 0	 10	 0;
];


% -------------------- mpc_regionR2 --------------------

mpc_regionR2.version = '2';
mpc_regionR2.baseMVA = 100.0000;
mpc_regionR2.bus = [
%	bus_i       type        Pd          Qd          Gs          Bs          area        Vm          Va          baseKV      zone        Vmax        Vmin        
	 1	 1	 402.2198	 190.111	 0	 200	 1	 1	 0	 130	 1	 1.1	 0.9;
	 2	 1	 201.2099	 75.06049	 0	 0	 1	 1	 0	 130	 1	 1.1	 0.9;
	 3	 1	 154.2076	 96.21037	 0	 100	 1	 1	 0	 130	 1	 1.1	 0.9;
	 4	 1	 536.4263	 286.8214	 0	 200	 1	 1	 0	 130	 1	 1.1	 0.9;
	 5	 1	 469.4231	 238.4712	 0	 200	 1	 1	 0	 130	 1	 1.1	 0.9;
	 6	 1	 362.0178	 151.1009	 0	 200	 1	 1	 0	 400	 1	 1.1	 0.9;
	 7	 1	 268.2132	 143.4107	 0	 0	 1	 1	 0	 400	 1	 1.1	 0.9;
	 8	 1	 603.4296	 288.1715	 0	 200	 1	 1	 0	 400	 1	 1.1	 0.9;
	 9	 1	 469.4231	 238.4712	 0	 100	 1	 1	 0	 400	 1	 1.1	 0.9;
	 10	 1	 67.0033	 48.35017	 0	 0	 1	 1	 0	 400	 1	 1.1	 0.9;
	 11	 1	 536.4263	 288.8214	 0	 100	 1	 1	 0	 400	 1	 1.1	 0.9;
	 12	 1	 500	 149	 0	 0	 1	 1	 0	 400	 1	 1.1	 0.9;
	 13	 1	 300	 100	 0	 0	 1	 1	 0	 400	 1	 1.1	 0.9;
	 14	 1	 590	 300	 0	 0	 1	 1	 0	 400	 1	 1.1	 0.9;
	 15	 1	 0	 0	 0	 0	 1	 1	 0	 400	 1	 1.1	 0.9;
	 16	 1	 0	 0	 0	 0	 1	 1	 0	 400	 1	 1.1	 0.9;
	 17	 1	 0	 0	 0	 0	 1	 1	 0	 400	 1	 1.1	 0.9;
	 18	 1	 0	 0	 0	 0	 1	 1	 0	 400	 1	 1.1	 0.9;
	 19	 1	 0	 0	 0	 0	 1	 1	 0	 400	 1	 1.1	 0.9;
	 20	 1	 0	 0	 0	 0	 1	 1	 0	 400	 1	 1.1	 0.9;
	 21	 1	 0	 0	 0	 0	 1	 1	 0	 400	 1	 1.1	 0.9;
	 22	 1	 0	 0	 0	 0	 1	 1	 0	 400	 1	 1.1	 0.9;
	 23	 2	 0	 0	 0	 0	 1	 1	 0	 15	 1	 1.1	 0.9;
	 24	 2	 0	 0	 0	 0	 1	 1	 0	 15	 1	 1.1	 0.9;
	 25	 2	 0	 0	 0	 0	 1	 1	 0	 15	 1	 1.1	 0.9;
	 26	 2	 0	 0	 0	 0	 1	 1	 0	 15	 1	 1.1	 0.9;
	 27	 3	 0	 0	 0	 0	 1	 1	 0	 15	 1	 1.1	 0.9;
	 28	 2	 0	 0	 0	 0	 1	 1	 0	 15	 1	 1.1	 0.9;
	 29	 2	 0	 0	 0	 0	 1	 1	 0	 15	 1	 1.1	 0.9;
	 30	 2	 0	 0	 0	 0	 1	 1	 0	 15	 1	 1.1	 0.9;
	 31	 2	 0	 0	 0	 0	 1	 1	 0	 15	 1	 1.1	 0.9;
	 32	 2	 0	 0	 0	 0	 1	 1	 0	 15	 1	 1.1	 0.9;
	 33	 2	 0	 0	 0	 0	 1	 1	 0	 15	 1	 1.1	 0.9;
];

mpc_regionR2.gen = [
%	bus         Pg          Qg          Qmax        Qmin        Vg          mBase       status      Pmax        Pmin        Pc1         Pc2         Qc1min      Qc1max      Qc2min      Qc2max      ramp_agc    ramp_10     ramp_30     ramp_q      apf         
	 23	 285	 100	 560	-360	 1	 600	 1	 560	 10;
	 24	 195	 40	 360	-280	 1	 400	 1	 380	 10;
	 25	 0	 0	 570	-570	 1	 600	 1	 0	 0;
	 26	 320	 0	 630	-630	 1	 700	 1	 630	 10;
	 27	 1405	 650	 1840	-540	 1	 3000	 1	 2800	 10;
	 28	 275	 20	 580	-540	 1	 600	 1	 540	 10;
	 29	 320	 0	 630	-630	 1	 700	 1	 630	 10;
	 30	 320	 0	 630	-630	 1	 700	 1	 630	 10;
	 31	 275	 0	 540	-540	 1	 600	 1	 540	 10;
	 32	 275	 0	 540	-540	 1	 600	 1	 540	 10;
	 33	 275	 0	 540	-540	 1	 600	 1	 540	 10;
];

mpc_regionR2.branch = [
%	fbus        tbus        r           x           b           rateA       rateB       rateC       ratio       angle       status      angmin      angmax      
	 1	 3	 0.01	 0.06	 0.012211	 175	 175	 175	 0	 0	 1	-30	 30;
	 1	 3	 0.01	 0.06	 0.012211	 175	 175	 175	 0	 0	 1	-30	 30;
	 1	 5	 0.01497	 0.12	 0.024954	 175	 175	 175	 0	 0	 1	-30	 30;
	 1	 5	 0.01497	 0.12	 0.024954	 175	 175	 175	 0	 0	 1	-30	 30;
	 2	 4	 0.037988	 0.28	 0.059995	 175	 175	 175	 0	 0	 1	-30	 30;
	 2	 4	 0.037988	 0.28	 0.059995	 175	 175	 175	 0	 0	 1	-30	 30;
	 2	 5	 0.05	 0.3	 0.059995	 175	 175	 175	 0	 0	 1	-30	 30;
	 3	 4	 0.01	 0.08	 0.015928	 175	 175	 175	 0	 0	 1	-30	 30;
	 3	 4	 0.01	 0.08	 0.015928	 175	 175	 175	 0	 0	 1	-30	 30;
	 16	 7	 0	-0.04	 0	 700	 700	 700	 0	 0	 1	-30	 30;
	 17	 6	 0	-0.04	 0	 700	 700	 700	 0	 0	 1	-30	 30;
	 18	 6	 0	-0.04	 0	 700	 700	 700	 0	 0	 1	-30	 30;
	 15	 19	 0.01	 0.066669	 2.000576	 700	 700	 700	 0	 0	 1	-30	 30;
	 19	 7	 0	-0.026669	 0	 700	 700	 700	 0	 0	 1	-30	 30;
	 15	 20	 0.006	 0.08	 2.397664	 700	 700	 700	 0	 0	 1	-30	 30;
	 20	 21	 0	-0.03	 0	 700	 700	 700	 0	 0	 1	-30	 30;
	 6	 21	 0.003	 0.03	 0.899744	 700	 700	 700	 0	 0	 1	-30	 30;
	 6	 12	 0.006	 0.045	 1.301888	 700	 700	 700	 0	 0	 1	-30	 30;
	 7	 8	 0.002	 0.015	 0.497632	 700	 700	 700	 0	 0	 1	-30	 30;
	 7	 21	 0.002	 0.02	 0.598176	 700	 700	 700	 0	 0	 1	-30	 30;
	 8	 21	 0.001	 0.01	 0.301594	 700	 700	 700	 0	 0	 1	-30	 30;
	 8	 9	 0.001	 0.01	 0.301594	 700	 700	 700	 0	 0	 1	-30	 30;
	 8	 10	 0.002	 0.02	 0.598176	 700	 700	 700	 0	 0	 1	-30	 30;
	 21	 22	 0.002	 0.02	 0.598176	 700	 700	 700	 0	 0	 1	-30	 30;
	 21	 22	 0.002	 0.02	 0.598176	 700	 700	 700	 0	 0	 1	-30	 30;
	 22	 11	 0.004	 0.04	 1.201344	 700	 700	 700	 0	 0	 1	-30	 30;
	 22	 11	 0.004	 0.04	 1.201344	 700	 700	 700	 0	 0	 1	-30	 30;
	 22	 13	 0.011	 0.08	 2.397664	 700	 700	 700	 0	 0	 1	-30	 30;
	 9	 10	 0.001	 0.015	 0.497632	 700	 700	 700	 0	 0	 1	-30	 30;
	 12	 13	 0.002	 0.02	 0.598176	 700	 700	 700	 0	 0	 1	-30	 30;
	 13	 14	 0.003	 0.03	 0.899744	 700	 700	 700	 0	 0	 1	-30	 30;
	 13	 14	 0.003	 0.03	 0.899744	 700	 700	 700	 0	 0	 1	-30	 30;
	 2	 23	 0	 0.0375	 0	 400	 400	 400	 1	 0	 1	-30	 30;
	 3	 24	 0	 0.075	 0	 1200	 1200	 1200	 1	 0	 1	-30	 30;
	 6	 25	 0	 0.033333	 0	 300	 300	 300	 1	 0	 1	-30	 30;
	 7	 26	 0	 0.021429	 0	 700	 700	 700	 1	 0	 1	-30	 30;
	 10	 27	 0	 0.025	 0	 600	 600	 600	 1	 0	 1	-30	 30;
	 10	 28	 0	 0.025	 0	 600	 600	 600	 1	 0	 1	-30	 30;
	 11	 29	 0	 0.021429	 0	 700	 700	 700	 1	 0	 1	-30	 30;
	 11	 30	 0	 0.021429	 0	 700	 700	 700	 1	 0	 1	-30	 30;
	 13	 31	 0	 0.025	 0	 600	 600	 600	 1	 0	 1	-30	 30;
	 14	 32	 0	 0.025	 0	 600	 600	 600	 1	 0	 1	-30	 30;
	 14	 33	 0	 0.025	 0	 600	 600	 600	 1	 0	 1	-30	 30;
	 21	 4	 0	 0.01	 0	 1000	 1000	 1000	 1	 0	 1	-30	 30;
	 21	 4	 0	 0.01	 0	 1000	 1000	 1000	 1	 0	 1	-30	 30;
	 22	 5	 0	 0.01	 0	 1000	 1000	 1000	 1	 0	 1	-30	 30;
	 22	 5	 0	 0.01	 0	 1000	 1000	 1000	 1	 0	 1	-30	 30;
];

mpc_regionR2.gencost = [
%	2           startup     shutdown    n           c(n-1)...c0 
	 2	 0	 0	 3	 0	 20	 0;
	 2	 0	 0	 3	 0	 10	 0;
	 2	 0	 0	 3	 0	 30	 0;
	 2	 0	 0	 3	 0	 10	 0;
	 2	 0	 0	 3	 0	 20	 0;
	 2	 0	 0	 3	 0	 10	 0;
	 2	 0	 0	 3	 0	 10	 0;
	 2	 0	 0	 3	 0	 30	 0;
	 2	 0	 0	 3	 0	 10	 0;
	 2	 0	 0	 3	 0	 20	 0;
	 2	 0	 0	 3	 0	 10	 0;
];


% ---------- Interregional Tie-Line Information ----------
% Each row: {From_Region (string), To_Region (string), Branch_Data (1x13 array)}
% Branch_Data: {fbus, tbus, r, x, b, rateA, rateB, rateC, ratio, angle, status, angmin, angmax}

interregional_tielines_total = {
	{'mpc_regionR1', 'mpc_regionR2', [ 13	 15	 0.004	 0.04	 1.201344	 700	 700	 700	 0	 0	 1	-30	 30]},
	{'mpc_regionR1', 'mpc_regionR2', [ 13	 16	 0.01	 0.1	 3.000864	 700	 700	 700	 0	 0	 1	-30	 30]},
	{'mpc_regionR1', 'mpc_regionR2', [ 15	 15	 0.001	 0.01	 0.301594	 700	 700	 700	 0	 0	 1	-30	 30]},
	{'mpc_regionR1', 'mpc_regionR2', [ 15	 17	 0.006	 0.08	 2.397664	 700	 700	 700	 0	 0	 1	-30	 30]},
	{'mpc_regionR1', 'mpc_regionR2', [ 15	 18	 0.006	 0.08	 2.397664	 700	 700	 700	 0	 0	 1	-30	 30]},
};

